<?xml version="1.0" encoding="UTF-8"?>

<!-- generated on 2024-03-12 14:57:10 by Eclipse SUMO netedit Version v1_19_0+0208-13a9e45677a
-->

<routes xmlns:xsi="http://www.w3.org/2001/XMLSchema-instance" xsi:noNamespaceSchemaLocation="http://sumo.dlr.de/xsd/routes_file.xsd">
    <!-- Vehicles, persons and containers (sorted by depart) -->
    <vType id="phCar" minGap="0.1" speedFactor="normc(1,0.1,0.2,2)" vClass="passenger" sigma="0.4" color="0,255,0" latAlignment="0" length="4.425" width="1.73"/>
    <vType id="phMotor" minGap="0.1" speedFactor="normc(1.00,0.00)" vClass="motorcycle" sigma="0.15" color="0,0,255" latAlignment="left" length="1.82" width="0.675"/>

    <route id="kbt-10_to_kuf-4" edges="thornton-drive-extension-outward thornton-drive-lower-out L2 L3 L4 L5 L6 univ-road-lower-in"/>
    <route id="kbt-10_to_kuf-4a" edges="thornton-drive-extension-outward thornton-drive-lower-out L2 L3 L4 L5 L6 R6 R5 R4"/>
    <route id="kbt-10_to_kuf-4a_to_kbt-2" edges="thornton-drive-extension-outward thornton-drive-lower-out L2 L3 L4 L5 L6 R6 R5 R4 R3 R2 R1"/>
    <route id="kbt-10_to_kuf-4a_to_kbt-3" edges="thornton-drive-extension-outward thornton-drive-lower-out L2 L3 L4 L5 L6 R6 R5 R4 thornton-drive-in thornton-drive-extension-towards"/>
    <route id="kbt-10_to_kuf-4b" edges="thornton-drive-extension-outward thornton-drive-lower-out L2 L3 L4 L5 L6 univ-road-upper-in"/>
    <route id="kbt-10_to_kuf-5" edges="thornton-drive-extension-outward thornton-drive-lower-out L2 L3 L4 L5 L6 L7 L8 L9 L10 L11 L12"/>
    <route id="kbt-12" edges="thornton-drive-extension-outward thornton-drive-upper-out R2 R1"/>
    <route id="kbt-2" edges="R6 R5 R4 R3 R2 R1"/>
    <route id="kbt-3" edges="R6 R5 R4 thornton-drive-in thornton-drive-extension-towards"/>
    <route id="kbt-4" edges="L1 thornton-drive-in thornton-drive-extension-towards"/>
    <route id="kbt-4a" edges="L1 R3 R2 R1"/>
    <route id="kbt-5_to_kuf-4" edges="L1 L2 L3 L4 L5 L6 univ-road-lower-in"/>
    <route id="kbt-5_to_kuf-4a" edges="L1 L2 L3 L4 L5 L6 R6 R5 R4"/>
    <route id="kbt-5_to_kuf-4a_to_kbt-2" edges="L1 L2 L3 L4 L5 L6 R6 R5 R4 R3 R2 R1"/>
    <route id="kbt-5_to_kuf-4a_to_kbt-3" edges="L1 L2 L3 L4 L5 L6 R6 R5 R4 thornton-drive-in thornton-drive-extension-towards"/>
    <route id="kbt-5_to_kuf-4b" edges="L1 L2 L3 L4 L5 L6 univ-road-upper-in"/>
    <route id="kbt-5_to_kuf-5" edges="L1 L2 L3 L4 L5 L6 L7 L8 L9 L10 L11 L12"/>
    <route id="kbt-7" edges="b.gonzales-road R3 R2 R1"/>
    <route id="kbt-8" edges="b.gonzales-road thornton-drive-in thornton-drive-extension-towards"/>
    <route id="kbt-9_to_kuf-4" edges="b.gonzales-road L2 L3 L4 L5 L6 univ-road-lower-in"/>
    <route id="kbt-9_to_kuf-4a" edges="b.gonzales-road L2 L3 L4 L5 L6 R6 R5 R4"/>
    <route id="kbt-9_to_kuf-4a_to_kbt-2" edges="b.gonzales-road L2 L3 L4 L5 L6 R6 R5 R4 R3 R2 R1"/>
    <route id="kbt-9_to_kuf-4a_to_kbt-3" edges="b.gonzales-road L2 L3 L4 L5 L6 R6 R5 R4 thornton-drive-in thornton-drive-extension-towards"/>
    <route id="kbt-9_to_kuf-4b" edges="b.gonzales-road L2 L3 L4 L5 L6 univ-road-upper-in"/>
    <route id="kbt-9_to_kuf-5" edges="b.gonzales-road L2 L3 L4 L5 L6 L7 L8 L9 L10 L11 L12"/>
    <route id="kuf-10b" edges="univ-road-lower-out L7 L8 L9 L10 L11 L12"/>
    <route id="kuf-10c" edges="univ-road-upper-out L7 L8 L9 L10 L11 L12"/>
    <route id="kuf-12a-zerovehiclessiya_to_kbt-2" edges="univ-road-upper-out R6 R5 R4 R3 R2 R1"/>
    <route id="kuf-12a-zerovehiclessiya_to_kbt-3" edges="univ-road-upper-out R6 R5 R4 thornton-drive-in thornton-drive-extension-towards"/>
    <route id="kuf-2_to_kbt-2" edges="R7 R6 R5 R4 R3 R2 R1"/>
    <route id="kuf-2_to_kbt-3" edges="R7 R6 R5 R4 thornton-drive-in thornton-drive-extension-towards"/>
    <route id="kuf-3" edges="R7 univ-road-lower-in"/>
    <route id="kuf-3a" edges="R7 univ-road-upper-in"/>
    <route id="kuf-4" edges="L6 univ-road-lower-in"/>
    <route id="kuf-4b" edges="L6 univ-road-upper-in"/>
    <route id="kuf-5" edges="L6 L7 L8 L9 L10 L11 L12"/>
    <route id="kuf-7_to_kbt-2" edges=" f.dela-rosa-road R6 R5 R4 R3 R2 R1"/>
    <route id="kuf-7_to_kbt-3" edges=" f.dela-rosa-road R6 R5 R4 thornton-drive-in thornton-drive-extension-towards"/>
    <route id="kuf-8" edges=" f.dela-rosa-road univ-road-lower-in"/>
    <route id="kuf-8a" edges=" f.dela-rosa-road univ-road-upper-in"/>
    <route id="kuf-9" edges=" f.dela-rosa-road L7 L8 L9 L10 L11 L12"/>

    <flow id ="f_0" type = "phMotor" begin="0.00" route="kbt-4" end="2400.00" number="28" departLane="free" departSpeed="max"/>
    <flow id ="f_1" type = "phCar" begin="0.00" route="kbt-4" end="2400.00" number="18" departLane="free" departSpeed="max"/>
    <flow id ="f_2" type = "phMotor" begin="0.00" route="kbt-4a" end="2400.00" number="256" departLane="free" departSpeed="max"/>
    <flow id ="f_3" type = "phCar" begin="0.00" route="kbt-4a" end="2400.00" number="170" departLane="free" departSpeed="max"/>
    <flow id ="f_4" type = "phMotor" begin="0.00" route="kbt-5_to_kuf-4" end="2400.00" number="79" departLane="free" departSpeed="max"/>
    <flow id ="f_5" type = "phCar" begin="0.00" route="kbt-5_to_kuf-4" end="2400.00" number="52" departLane="free" departSpeed="max"/>
    <flow id ="f_6" type = "phMotor" begin="0.00" route="kbt-5_to_kuf-4a_to_kbt-2" end="2400.00" number="2" departLane="free" departSpeed="max"/>
    <flow id ="f_7" type = "phCar" begin="0.00" route="kbt-5_to_kuf-4a_to_kbt-2" end="2400.00" number="2" departLane="free" departSpeed="max"/>
    <flow id ="f_8" type = "phMotor" begin="0.00" route="kbt-5_to_kuf-4b" end="2400.00" number="67" departLane="free" departSpeed="max"/>
    <flow id ="f_9" type = "phCar" begin="0.00" route="kbt-5_to_kuf-4b" end="2400.00" number="44" departLane="free" departSpeed="max"/>
    <flow id ="f_10" type = "phMotor" begin="0.00" route="kbt-5_to_kuf-5" end="2400.00" number="2184" departLane="free" departSpeed="max"/>
    <flow id ="f_11" type = "phCar" begin="0.00" route="kbt-5_to_kuf-5" end="2400.00" number="1456" departLane="free" departSpeed="max"/>
    <flow id ="f_12" type = "phMotor" begin="0.00" route="kbt-7" end="2400.00" number="386" departLane="free" departSpeed="max"/>
    <flow id ="f_13" type = "phCar" begin="0.00" route="kbt-7" end="2400.00" number="257" departLane="free" departSpeed="max"/>
    <flow id ="f_14" type = "phMotor" begin="0.00" route="kbt-8" end="2400.00" number="8" departLane="free" departSpeed="max"/>
    <flow id ="f_15" type = "phCar" begin="0.00" route="kbt-8" end="2400.00" number="5" departLane="free" departSpeed="max"/>
    <flow id ="f_16" type = "phMotor" begin="0.00" route="kbt-9_to_kuf-4" end="2400.00" number="1" departLane="free" departSpeed="max"/>
    <flow id ="f_17" type = "phMotor" begin="0.00" route="kbt-9_to_kuf-4b" end="2400.00" number="1" departLane="free" departSpeed="max"/>
    <flow id ="f_18" type = "phMotor" begin="0.00" route="kbt-9_to_kuf-5" end="2400.00" number="13" departLane="free" departSpeed="max"/>
    <flow id ="f_19" type = "phCar" begin="0.00" route="kbt-9_to_kuf-5" end="2400.00" number="9" departLane="free" departSpeed="max"/>
    <flow id ="f_20" type = "phMotor" begin="0.00" route="kbt-10_to_kuf-4" end="2400.00" number="2" departLane="free" departSpeed="max"/>
    <flow id ="f_21" type = "phCar" begin="0.00" route="kbt-10_to_kuf-4" end="2400.00" number="1" departLane="free" departSpeed="max"/>
    <flow id ="f_22" type = "phMotor" begin="0.00" route="kbt-10_to_kuf-4b" end="2400.00" number="2" departLane="free" departSpeed="max"/>
    <flow id ="f_23" type = "phCar" begin="0.00" route="kbt-10_to_kuf-4b" end="2400.00" number="1" departLane="free" departSpeed="max"/>
    <flow id ="f_24" type = "phMotor" begin="0.00" route="kbt-10_to_kuf-5" end="2400.00" number="55" departLane="free" departSpeed="max"/>
    <flow id ="f_25" type = "phCar" begin="0.00" route="kbt-10_to_kuf-5" end="2400.00" number="36" departLane="free" departSpeed="max"/>
    <flow id ="f_26" type = "phMotor" begin="0.00" route="kbt-12" end="2400.00" number="6" departLane="free" departSpeed="max"/>
    <flow id ="f_27" type = "phCar" begin="0.00" route="kbt-12" end="2400.00" number="4" departLane="free" departSpeed="max"/>
    <flow id ="f_28" type = "phMotor" begin="0.00" route="kuf-2_to_kbt-2" end="2400.00" number="2260" departLane="free" departSpeed="max"/>
    <flow id ="f_29" type = "phCar" begin="0.00" route="kuf-2_to_kbt-2" end="2400.00" number="1507" departLane="free" departSpeed="max"/>
    <flow id ="f_30" type = "phMotor" begin="0.00" route="kuf-2_to_kbt-3" end="2400.00" number="22" departLane="free" departSpeed="max"/>
    <flow id ="f_31" type = "phCar" begin="0.00" route="kuf-2_to_kbt-3" end="2400.00" number="14" departLane="free" departSpeed="max"/>
    <flow id ="f_32" type = "phMotor" begin="0.00" route="kuf-3" end="2400.00" number="147" departLane="free" departSpeed="max"/>
    <flow id ="f_33" type = "phCar" begin="0.00" route="kuf-3" end="2400.00" number="98" departLane="free" departSpeed="max"/>
    <flow id ="f_34" type = "phMotor" begin="0.00" route="kuf-3a" end="2400.00" number="16" departLane="free" departSpeed="max"/>
    <flow id ="f_35" type = "phCar" begin="0.00" route="kuf-3a" end="2400.00" number="11" departLane="free" departSpeed="max"/>
    <flow id ="f_36" type = "phMotor" begin="0.00" route="kuf-7_to_kbt-2" end="2400.00" number="92" departLane="free" departSpeed="max"/>
    <flow id ="f_37" type = "phCar" begin="0.00" route="kuf-7_to_kbt-2" end="2400.00" number="62" departLane="free" departSpeed="max"/>
    <flow id ="f_38" type = "phMotor" begin="0.00" route="kuf-7_to_kbt-3" end="2400.00" number="1" departLane="free" departSpeed="max"/>
    <flow id ="f_39" type = "phMotor" begin="0.00" route="kuf-8" end="2400.00" number="61" departLane="free" departSpeed="max"/>
    <flow id ="f_40" type = "phCar" begin="0.00" route="kuf-8" end="2400.00" number="40" departLane="free" departSpeed="max"/>
    <flow id ="f_41" type = "phMotor" begin="0.00" route="kuf-8a" end="2400.00" number="59" departLane="free" departSpeed="max"/>
    <flow id ="f_42" type = "phCar" begin="0.00" route="kuf-8a" end="2400.00" number="39" departLane="free" departSpeed="max"/>
    <flow id ="f_43" type = "phMotor" begin="0.00" route="kuf-9" end="2400.00" number="47" departLane="free" departSpeed="max"/>
    <flow id ="f_44" type = "phCar" begin="0.00" route="kuf-9" end="2400.00" number="32" departLane="free" departSpeed="max"/>
    <flow id ="f_45" type = "phMotor" begin="0.00" route="kuf-10b" end="2400.00" number="119" departLane="free" departSpeed="max"/>
    <flow id ="f_46" type = "phCar" begin="0.00" route="kuf-10b" end="2400.00" number="80" departLane="free" departSpeed="max"/>
    <flow id ="f_47" type = "phMotor" begin="0.00" route="kuf-10c" end="2400.00" number="304" departLane="free" departSpeed="max"/>
    <flow id ="f_48" type = "phCar" begin="0.00" route="kuf-10c" end="2400.00" number="202" departLane="free" departSpeed="max"/>
    
</routes>
